*HEADING
Automated FEA Model
*NODE
1, 0.0, 0.0, 0.0
2, 1.0, 0.0, 0.0
*ELEMENT, TYPE=C3D8
1, 1, 2, 3, 4, 5, 6, 7, 8
*MATERIAL, NAME=MAT1
*ELASTIC
210000.0, 0.3
*STEP
*STATIC
*END STEP
